@<TRIPOS>MOLECULE
unitcell_mol1.pdb
 18 18 0 0 0
SMALL
GASTEIGER

@<TRIPOS>ATOM
      1  O1        12.0450    4.1280    5.1730 O.3     1  UB71       -0.4771
      2  H1        12.8390    4.2260    5.3390 H       1  UB71        0.2954
      3  C1        10.1260    5.2210    4.3330 C.ar    1  UB71        0.0589
      4  C2         9.4960    4.0360    4.0610 C.ar    1  UB71       -0.0470
      5  H2         9.9170    3.2200    4.2550 H       1  UB71        0.0626
      6  C7        11.4940    5.2210    4.9310 C.2     1  UB71        0.3368
      7  O3         5.6750    4.1280    2.4050 O.2     1  UB71       -0.2451
      8  O4         5.6750    6.3140    2.4050 O.3     1  UB71       -0.4771
      9  O2        12.0450    6.3140    5.1730 O.2     1  UB71       -0.2451
     10  H4         4.8810    6.2160    2.2390 H       1  UB71        0.2954
     11  C4         7.5940    5.2210    3.2450 C.ar    1  UB71        0.0589
     12  C3         8.2240    4.0360    3.5170 C.ar    1  UB71       -0.0470
     13  C5         8.2240    6.4060    3.5170 C.ar    1  UB71       -0.0470
     14  C6         9.4960    6.4060    4.0610 C.ar    1  UB71       -0.0470
     15  H3         7.8030    3.2200    3.3230 H       1  UB71        0.0626
     16  H5         7.8030    7.2220    3.3230 H       1  UB71        0.0626
     17  H6         9.9170    7.2220    4.2550 H       1  UB71        0.0626
     18  C8         6.2260    5.2210    2.6470 C.2     1  UB71        0.3368
@<TRIPOS>BOND
     1    10     8    1
     2     8    18    1
     3     7    18    2
     4    18    11    1
     5    11    12   ar
     6    11    13   ar
     7    15    12    1
     8    16    13    1
     9    12     4   ar
    10    13    14   ar
    11     4     5    1
    12     4     3   ar
    13    14    17    1
    14    14     3   ar
    15     3     6    1
    16     6     9    2
    17     6     1    1
    18     1     2    1
