@<TRIPOS>MOLECULE
unitcell_mol1.pdb
 18 18 0 0 0
SMALL
GASTEIGER

@<TRIPOS>ATOM
      1  O1        12.0450    4.1280    5.1730 O.2     1  UB71       -0.2451
      2  C6        10.1260    5.2210    4.3330 C.ar    1  UB71        0.0589
      3  C1         9.4960    4.0360    4.0610 C.ar    1  UB71       -0.0470
      4  C7        11.4940    5.2210    4.9310 C.2     1  UB71        0.3368
      5  O3         5.6750    4.1280    2.4050 O.2     1  UB71       -0.2451
      6  O4         5.6750    6.3140    2.4050 O.3     1  UB71       -0.4771
      7  O2        12.0450    6.3140    5.1730 O.3     1  UB71       -0.4771
      8  C3         7.5940    5.2210    3.2450 C.ar    1  UB71        0.0589
      9  C2         8.2240    4.0360    3.5170 C.ar    1  UB71       -0.0470
     10  C4         8.2240    6.4060    3.5170 C.ar    1  UB71       -0.0470
     11  C5         9.4960    6.4060    4.0610 C.ar    1  UB71       -0.0470
     12  C8         6.2260    5.2210    2.6470 C.2     1  UB71        0.3368
     13 H           9.9706    3.1419    4.2620 H       1  UB71        0.0626
     14 H           6.1189    7.1158    2.6000 H       1  UB71        0.2954
     15 H          11.6011    7.1158    4.9780 H       1  UB71        0.2954
     16 H           7.7494    3.1419    3.3160 H       1  UB71        0.0626
     17 H           7.7494    7.3001    3.3160 H       1  UB71        0.0626
     18 H           9.9706    7.3001    4.2620 H       1  UB71        0.0626
@<TRIPOS>BOND
     1     5    12    2
     2     6    12    1
     3    12     8    1
     4     8     9   ar
     5     8    10   ar
     6     9     3   ar
     7    10    11   ar
     8     3     2   ar
     9    11     2   ar
    10     2     4    1
    11     4     1    2
    12     4     7    1
    13     3    13    1
    14     6    14    1
    15     7    15    1
    16     9    16    1
    17    10    17    1
    18    11    18    1
